Version 4
SHEET 1 1824 680
WIRE -1232 -1904 -1712 -1904
WIRE -1712 -1840 -1712 -1904
WIRE -1696 -1840 -1712 -1840
WIRE -1456 -1840 -1488 -1840
WIRE -1696 -1808 -1760 -1808
WIRE -1408 -1808 -1488 -1808
WIRE -1392 -1808 -1408 -1808
WIRE -1232 -1808 -1232 -1904
WIRE -1232 -1808 -1312 -1808
WIRE -1152 -1808 -1232 -1808
WIRE -1696 -1776 -1872 -1776
WIRE -1232 -1776 -1232 -1808
WIRE -1408 -1760 -1408 -1808
WIRE -1872 -1680 -1872 -1712
WIRE -1760 -1680 -1760 -1808
WIRE -1760 -1680 -1872 -1680
WIRE -1600 -1680 -1760 -1680
WIRE -1456 -1680 -1456 -1840
WIRE -1456 -1680 -1600 -1680
WIRE -1408 -1680 -1408 -1696
WIRE -1408 -1680 -1456 -1680
WIRE -1232 -1680 -1232 -1712
WIRE -1232 -1680 -1408 -1680
WIRE -1600 -1664 -1600 -1680
WIRE -640 -1456 -640 -1520
WIRE -640 -1456 -832 -1456
WIRE -512 -1456 -640 -1456
WIRE -448 -1456 -512 -1456
WIRE -832 -1424 -832 -1456
WIRE -448 -1408 -448 -1456
WIRE -512 -1312 -512 -1456
WIRE -512 -1312 -560 -1312
WIRE -832 -1296 -832 -1360
WIRE -832 -1296 -1120 -1296
WIRE -624 -1296 -832 -1296
WIRE -448 -1280 -448 -1344
WIRE -448 -1280 -560 -1280
WIRE -352 -1280 -448 -1280
WIRE 224 -1280 -352 -1280
WIRE -1200 -1200 -1264 -1200
WIRE -1120 -1200 -1120 -1296
WIRE -352 -1088 -352 -1280
WIRE -240 -1088 -352 -1088
WIRE -144 -1088 -160 -1088
WIRE -112 -1088 -144 -1088
WIRE 80 -1088 -32 -1088
WIRE -1840 -1072 -1888 -1072
WIRE -1184 -1072 -1216 -1072
WIRE -912 -1072 -1104 -1072
WIRE -2032 -1056 -2080 -1056
WIRE -1936 -1056 -1984 -1056
WIRE -1888 -1056 -1888 -1072
WIRE -144 -1024 -144 -1088
WIRE 80 -1024 80 -1088
WIRE 240 -1024 160 -1024
WIRE 352 -1024 320 -1024
WIRE -2032 -976 -2032 -1056
WIRE -1984 -976 -2032 -976
WIRE -1936 -976 -1936 -1056
WIRE -1888 -976 -1936 -976
WIRE -2080 -960 -2080 -976
WIRE 224 -960 224 -1280
WIRE 160 -944 160 -1024
WIRE 160 -944 -144 -944
WIRE 192 -944 160 -944
WIRE 352 -928 352 -1024
WIRE 352 -928 256 -928
WIRE -912 -912 -912 -1072
WIRE -640 -912 -912 -912
WIRE -304 -912 -560 -912
WIRE 192 -912 -304 -912
WIRE -304 -880 -304 -912
WIRE -304 -784 -304 -800
WIRE 224 -784 224 -896
WIRE 224 -784 -304 -784
WIRE -2032 -768 -2096 -768
WIRE -304 -736 -304 -784
WIRE -2032 -720 -2032 -768
WIRE -1920 -720 -1952 -720
WIRE -1888 -608 -1936 -608
FLAG 352 -1024 Vout
IOPIN 352 -1024 Out
FLAG -2080 -960 0
FLAG -1840 -1072 Stimulus
FLAG -1920 -720 9V
IOPIN -1920 -720 Out
FLAG -2096 -688 0
FLAG -1264 -1200 9V
IOPIN -1264 -1200 In
FLAG -1888 -608 Vout
IOPIN -1888 -608 Out
FLAG -1216 -1072 Stimulus
FLAG -640 -1520 0
FLAG -1600 -1664 0
FLAG 80 -1024 0
FLAG -304 -736 0
FLAG -352 -1280 5v
IOPIN -352 -1280 Out
FLAG -144 -1088 650mV
IOPIN -144 -1088 Out
SYMBOL voltage -1984 -1072 R0
WINDOW 123 0 0 Left 0
WINDOW 39 0 0 Left 0
WINDOW 3 -89 197 Left 2
WINDOW 0 -13 54 Left 2
SYMATTR Value PWL file=PWLinput.csv
SYMATTR InstName V2
SYMBOL voltage -1888 -1072 R0
WINDOW 123 24 44 Left 2
WINDOW 39 0 0 Left 0
WINDOW 3 -386 233 Left 2
WINDOW 0 -11 56 Left 2
SYMATTR Value SINE({sineOffset} {sineAmplitude} {sineFreq})
SYMATTR InstName V3
SYMBOL voltage -2080 -1072 R0
WINDOW 123 0 0 Left 0
WINDOW 39 0 0 Left 0
WINDOW 3 3 160 Left 2
WINDOW 0 -13 55 Left 2
SYMATTR Value {dcAmplitude}
SYMATTR InstName V1
SYMBOL voltage -2096 -784 R0
WINDOW 123 24 44 Left 2
WINDOW 39 0 0 Left 0
WINDOW 3 -46 76 Left 2
WINDOW 0 -13 57 Left 2
SYMATTR Value 9
SYMATTR InstName V4
SYMBOL res -1936 -736 R90
WINDOW 0 -9 30 VBottom 2
WINDOW 3 34 56 VTop 2
SYMATTR InstName R_Sense
SYMATTR Value 0.010
SYMBOL res -1216 -1184 R270
WINDOW 0 32 56 VTop 2
WINDOW 3 0 56 VBottom 2
SYMATTR InstName R1
SYMATTR Value 100
SYMBOL res -1088 -1088 R90
WINDOW 0 0 56 VBottom 2
WINDOW 3 32 56 VTop 2
SYMATTR InstName R2
SYMATTR Value 0
SYMBOL AutoGenerated\\LM7805 -592 -1296 R0
SYMATTR InstName U2
SYMBOL cap -464 -1408 R0
SYMATTR InstName C1
SYMATTR Value 0.1µf
SYMBOL cap -848 -1424 R0
SYMATTR InstName C2
SYMATTR Value 0.33µf
SYMBOL AutoGenerated\\LM2595_ADJ_TRANS -1600 -1808 R0
SYMATTR InstName U1
SYMBOL ind -1296 -1824 R90
WINDOW 0 5 56 VBottom 2
WINDOW 3 32 56 VTop 2
SYMATTR InstName L1
SYMATTR Value 6.8µ
SYMBOL cap -1248 -1776 R0
SYMATTR InstName C3
SYMATTR Value 120µ
SYMBOL cap -1888 -1776 R0
SYMATTR InstName C4
SYMATTR Value 220µ
SYMBOL diode -1392 -1696 R180
WINDOW 0 24 64 Left 2
WINDOW 3 24 0 Left 2
SYMATTR InstName D1
SYMATTR Value DN5822
SYMBOL res -144 -1104 R90
WINDOW 0 0 56 VBottom 2
WINDOW 3 32 56 VTop 2
SYMATTR InstName R6
SYMATTR Value 870
SYMBOL res -16 -1104 R90
WINDOW 0 0 56 VBottom 2
WINDOW 3 32 56 VTop 2
SYMATTR InstName R7
SYMATTR Value 130
SYMBOL res -160 -1040 R0
SYMATTR InstName R8
SYMATTR Value 680
SYMBOL Opamps\\opamp2 224 -992 R0
SYMATTR InstName U4
SYMATTR Value TLC2272
SYMBOL res -288 -784 R180
WINDOW 0 36 76 Left 2
WINDOW 3 36 40 Left 2
SYMATTR InstName R10
SYMATTR Value 50k
SYMBOL res 336 -1040 R90
WINDOW 0 0 56 VBottom 2
WINDOW 3 32 56 VTop 2
SYMATTR InstName R3
SYMATTR Value 64000
SYMBOL res -544 -928 R90
WINDOW 0 0 56 VBottom 2
WINDOW 3 32 56 VTop 2
SYMATTR InstName R4
SYMATTR Value 1k
TEXT -2080 -1120 Left 2 !.tran 0 {transtop} 0 {timestep}
TEXT -1952 -1168 Left 2 !.include E344cfg.txt
TEXT -2288 -1384 Left 2 ;Don't change these -- used for auto-assessments.\nYou may modify input files while developing.\nFor submission: \n  * Use only 9V supply \n  * Connect "Stimulus" to your input\n  * Connect "Vout" to your output.\n  * Only one label name per net.
TEXT -2280 -1168 Left 2 ;Config file:
TEXT -2280 -1120 Left 2 ;Analysis setup:
TEXT -2272 -744 Left 2 ;Battery
TEXT -2280 -1032 Left 2 ;Sensor-\nemulating \nstimulus
TEXT -2272 -608 Left 2 ;Assessed nets:\nConnect to your outputs
TEXT -1552 -1400 Left 2 ;E. Stewdent.,  00024601\nV(0degV) = 500 mV\ndeltaV/degV = 10 mV
TEXT -1544 -616 Left 2 !.incl LM78XX_RS.lib
TEXT -1528 -592 Left 2 !.incl TL081.lib
TEXT -1536 -656 Left 2 !.incl 1N5822.lib
TEXT -1552 -560 Left 2 !.incl TLC2272.lib
LINE Normal -1792 -1008 -1856 -1008 2
LINE Normal -1792 -864 -1792 -1008 2
LINE Normal -1808 -880 -1792 -864 2
LINE Normal -1792 -864 -1808 -880 2
LINE Normal -1776 -880 -1792 -864 2
LINE Normal -2128 -1008 -2112 -1008 2
LINE Normal -2128 -928 -2128 -1008 2
LINE Normal -2128 -912 -2128 -928 2
LINE Normal -2096 -912 -2128 -912 2
LINE Normal -2112 -928 -2096 -912 2
LINE Normal -2096 -912 -2112 -928 2
LINE Normal -2112 -896 -2096 -912 2
LINE Normal -1968 -944 -1968 -992 2
LINE Normal -1856 -944 -1968 -944 2
LINE Normal -1856 -896 -1856 -944 2
LINE Normal -1872 -912 -1856 -896 2
LINE Normal -1856 -896 -1872 -912 2
LINE Normal -1840 -912 -1856 -896 2
LINE Normal -2304 -544 -2304 -1408 1
LINE Normal -1680 -1408 -1680 -544 1
LINE Normal -1680 -544 -2304 -544 1
LINE Normal -1680 -1408 -2304 -1408 1
